# generated using pymatgen
data_SrS
_symmetry_space_group_name_H-M   Fm-3m
_cell_length_a   6.06345800
_cell_length_b   6.06345800
_cell_length_c   6.06345800
_cell_angle_alpha   90.00000000
_cell_angle_beta   90.00000000
_cell_angle_gamma   90.00000000
_symmetry_Int_Tables_number   225
_chemical_formula_structural   SrS
_chemical_formula_sum   'Sr4 S4'
_cell_volume   222.92620406
_cell_formula_units_Z   4
loop_
 _symmetry_equiv_pos_site_id
 _symmetry_equiv_pos_as_xyz
  1  'x, y, z'
  2  'x, y, z'
  3  '-x, -y, -z'
  4  '-x, -y, -z'
  5  '-y, x, z'
  6  '-y, x, z'
  7  'y, -x, -z'
  8  'y, -x, -z'
  9  '-x, -y, z'
  10  '-x, -y, z'
  11  'x, y, -z'
  12  'x, y, -z'
  13  'y, -x, z'
  14  'y, -x, z'
  15  '-y, x, -z'
  16  '-y, x, -z'
  17  'x, -y, -z'
  18  'x, -y, -z'
  19  '-x, y, z'
  20  '-x, y, z'
  21  '-y, -x, -z'
  22  '-y, -x, -z'
  23  'y, x, z'
  24  'y, x, z'
  25  '-x, y, -z'
  26  '-x, y, -z'
  27  'x, -y, z'
  28  'x, -y, z'
  29  'y, x, -z'
  30  'y, x, -z'
  31  '-y, -x, z'
  32  '-y, -x, z'
  33  'z, x, y'
  34  'z, x, y'
  35  '-z, -x, -y'
  36  '-z, -x, -y'
  37  'z, -y, x'
  38  'z, -y, x'
  39  '-z, y, -x'
  40  '-z, y, -x'
  41  'z, -x, -y'
  42  'z, -x, -y'
  43  '-z, x, y'
  44  '-z, x, y'
  45  'z, y, -x'
  46  'z, y, -x'
  47  '-z, -y, x'
  48  '-z, -y, x'
  49  '-z, x, -y'
  50  '-z, x, -y'
  51  'z, -x, y'
  52  'z, -x, y'
  53  '-z, -y, -x'
  54  '-z, -y, -x'
  55  'z, y, x'
  56  'z, y, x'
  57  '-z, -x, y'
  58  '-z, -x, y'
  59  'z, x, -y'
  60  'z, x, -y'
  61  '-z, y, x'
  62  '-z, y, x'
  63  'z, -y, -x'
  64  'z, -y, -x'
  65  'y, z, x'
  66  'y, z, x'
  67  '-y, -z, -x'
  68  '-y, -z, -x'
  69  'x, z, -y'
  70  'x, z, -y'
  71  '-x, -z, y'
  72  '-x, -z, y'
  73  '-y, z, -x'
  74  '-y, z, -x'
  75  'y, -z, x'
  76  'y, -z, x'
  77  '-x, z, y'
  78  '-x, z, y'
  79  'x, -z, -y'
  80  'x, -z, -y'
  81  '-y, -z, x'
  82  '-y, -z, x'
  83  'y, z, -x'
  84  'y, z, -x'
  85  '-x, -z, -y'
  86  '-x, -z, -y'
  87  'x, z, y'
  88  'x, z, y'
  89  'y, -z, -x'
  90  'y, -z, -x'
  91  '-y, z, x'
  92  '-y, z, x'
  93  'x, -z, y'
  94  'x, -z, y'
  95  '-x, z, -y'
  96  '-x, z, -y'
  97  'x+1/2, y+1/2, z'
  98  'x+1/2, y+1/2, z'
  99  '-x+1/2, -y+1/2, -z'
  100  '-x+1/2, -y+1/2, -z'
  101  '-y+1/2, x+1/2, z'
  102  '-y+1/2, x+1/2, z'
  103  'y+1/2, -x+1/2, -z'
  104  'y+1/2, -x+1/2, -z'
  105  '-x+1/2, -y+1/2, z'
  106  '-x+1/2, -y+1/2, z'
  107  'x+1/2, y+1/2, -z'
  108  'x+1/2, y+1/2, -z'
  109  'y+1/2, -x+1/2, z'
  110  'y+1/2, -x+1/2, z'
  111  '-y+1/2, x+1/2, -z'
  112  '-y+1/2, x+1/2, -z'
  113  'x+1/2, -y+1/2, -z'
  114  'x+1/2, -y+1/2, -z'
  115  '-x+1/2, y+1/2, z'
  116  '-x+1/2, y+1/2, z'
  117  '-y+1/2, -x+1/2, -z'
  118  '-y+1/2, -x+1/2, -z'
  119  'y+1/2, x+1/2, z'
  120  'y+1/2, x+1/2, z'
  121  '-x+1/2, y+1/2, -z'
  122  '-x+1/2, y+1/2, -z'
  123  'x+1/2, -y+1/2, z'
  124  'x+1/2, -y+1/2, z'
  125  'y+1/2, x+1/2, -z'
  126  'y+1/2, x+1/2, -z'
  127  '-y+1/2, -x+1/2, z'
  128  '-y+1/2, -x+1/2, z'
  129  'z+1/2, x+1/2, y'
  130  'z+1/2, x+1/2, y'
  131  '-z+1/2, -x+1/2, -y'
  132  '-z+1/2, -x+1/2, -y'
  133  'z+1/2, -y+1/2, x'
  134  'z+1/2, -y+1/2, x'
  135  '-z+1/2, y+1/2, -x'
  136  '-z+1/2, y+1/2, -x'
  137  'z+1/2, -x+1/2, -y'
  138  'z+1/2, -x+1/2, -y'
  139  '-z+1/2, x+1/2, y'
  140  '-z+1/2, x+1/2, y'
  141  'z+1/2, y+1/2, -x'
  142  'z+1/2, y+1/2, -x'
  143  '-z+1/2, -y+1/2, x'
  144  '-z+1/2, -y+1/2, x'
  145  '-z+1/2, x+1/2, -y'
  146  '-z+1/2, x+1/2, -y'
  147  'z+1/2, -x+1/2, y'
  148  'z+1/2, -x+1/2, y'
  149  '-z+1/2, -y+1/2, -x'
  150  '-z+1/2, -y+1/2, -x'
  151  'z+1/2, y+1/2, x'
  152  'z+1/2, y+1/2, x'
  153  '-z+1/2, -x+1/2, y'
  154  '-z+1/2, -x+1/2, y'
  155  'z+1/2, x+1/2, -y'
  156  'z+1/2, x+1/2, -y'
  157  '-z+1/2, y+1/2, x'
  158  '-z+1/2, y+1/2, x'
  159  'z+1/2, -y+1/2, -x'
  160  'z+1/2, -y+1/2, -x'
  161  'y+1/2, z+1/2, x'
  162  'y+1/2, z+1/2, x'
  163  '-y+1/2, -z+1/2, -x'
  164  '-y+1/2, -z+1/2, -x'
  165  'x+1/2, z+1/2, -y'
  166  'x+1/2, z+1/2, -y'
  167  '-x+1/2, -z+1/2, y'
  168  '-x+1/2, -z+1/2, y'
  169  '-y+1/2, z+1/2, -x'
  170  '-y+1/2, z+1/2, -x'
  171  'y+1/2, -z+1/2, x'
  172  'y+1/2, -z+1/2, x'
  173  '-x+1/2, z+1/2, y'
  174  '-x+1/2, z+1/2, y'
  175  'x+1/2, -z+1/2, -y'
  176  'x+1/2, -z+1/2, -y'
  177  '-y+1/2, -z+1/2, x'
  178  '-y+1/2, -z+1/2, x'
  179  'y+1/2, z+1/2, -x'
  180  'y+1/2, z+1/2, -x'
  181  '-x+1/2, -z+1/2, -y'
  182  '-x+1/2, -z+1/2, -y'
  183  'x+1/2, z+1/2, y'
  184  'x+1/2, z+1/2, y'
  185  'y+1/2, -z+1/2, -x'
  186  'y+1/2, -z+1/2, -x'
  187  '-y+1/2, z+1/2, x'
  188  '-y+1/2, z+1/2, x'
  189  'x+1/2, -z+1/2, y'
  190  'x+1/2, -z+1/2, y'
  191  '-x+1/2, z+1/2, -y'
  192  '-x+1/2, z+1/2, -y'
  193  'x+1/2, y, z+1/2'
  194  'x+1/2, y, z+1/2'
  195  '-x+1/2, -y, -z+1/2'
  196  '-x+1/2, -y, -z+1/2'
  197  '-y+1/2, x, z+1/2'
  198  '-y+1/2, x, z+1/2'
  199  'y+1/2, -x, -z+1/2'
  200  'y+1/2, -x, -z+1/2'
  201  '-x+1/2, -y, z+1/2'
  202  '-x+1/2, -y, z+1/2'
  203  'x+1/2, y, -z+1/2'
  204  'x+1/2, y, -z+1/2'
  205  'y+1/2, -x, z+1/2'
  206  'y+1/2, -x, z+1/2'
  207  '-y+1/2, x, -z+1/2'
  208  '-y+1/2, x, -z+1/2'
  209  'x+1/2, -y, -z+1/2'
  210  'x+1/2, -y, -z+1/2'
  211  '-x+1/2, y, z+1/2'
  212  '-x+1/2, y, z+1/2'
  213  '-y+1/2, -x, -z+1/2'
  214  '-y+1/2, -x, -z+1/2'
  215  'y+1/2, x, z+1/2'
  216  'y+1/2, x, z+1/2'
  217  '-x+1/2, y, -z+1/2'
  218  '-x+1/2, y, -z+1/2'
  219  'x+1/2, -y, z+1/2'
  220  'x+1/2, -y, z+1/2'
  221  'y+1/2, x, -z+1/2'
  222  'y+1/2, x, -z+1/2'
  223  '-y+1/2, -x, z+1/2'
  224  '-y+1/2, -x, z+1/2'
  225  'z+1/2, x, y+1/2'
  226  'z+1/2, x, y+1/2'
  227  '-z+1/2, -x, -y+1/2'
  228  '-z+1/2, -x, -y+1/2'
  229  'z+1/2, -y, x+1/2'
  230  'z+1/2, -y, x+1/2'
  231  '-z+1/2, y, -x+1/2'
  232  '-z+1/2, y, -x+1/2'
  233  'z+1/2, -x, -y+1/2'
  234  'z+1/2, -x, -y+1/2'
  235  '-z+1/2, x, y+1/2'
  236  '-z+1/2, x, y+1/2'
  237  'z+1/2, y, -x+1/2'
  238  'z+1/2, y, -x+1/2'
  239  '-z+1/2, -y, x+1/2'
  240  '-z+1/2, -y, x+1/2'
  241  '-z+1/2, x, -y+1/2'
  242  '-z+1/2, x, -y+1/2'
  243  'z+1/2, -x, y+1/2'
  244  'z+1/2, -x, y+1/2'
  245  '-z+1/2, -y, -x+1/2'
  246  '-z+1/2, -y, -x+1/2'
  247  'z+1/2, y, x+1/2'
  248  'z+1/2, y, x+1/2'
  249  '-z+1/2, -x, y+1/2'
  250  '-z+1/2, -x, y+1/2'
  251  'z+1/2, x, -y+1/2'
  252  'z+1/2, x, -y+1/2'
  253  '-z+1/2, y, x+1/2'
  254  '-z+1/2, y, x+1/2'
  255  'z+1/2, -y, -x+1/2'
  256  'z+1/2, -y, -x+1/2'
  257  'y+1/2, z, x+1/2'
  258  'y+1/2, z, x+1/2'
  259  '-y+1/2, -z, -x+1/2'
  260  '-y+1/2, -z, -x+1/2'
  261  'x+1/2, z, -y+1/2'
  262  'x+1/2, z, -y+1/2'
  263  '-x+1/2, -z, y+1/2'
  264  '-x+1/2, -z, y+1/2'
  265  '-y+1/2, z, -x+1/2'
  266  '-y+1/2, z, -x+1/2'
  267  'y+1/2, -z, x+1/2'
  268  'y+1/2, -z, x+1/2'
  269  '-x+1/2, z, y+1/2'
  270  '-x+1/2, z, y+1/2'
  271  'x+1/2, -z, -y+1/2'
  272  'x+1/2, -z, -y+1/2'
  273  '-y+1/2, -z, x+1/2'
  274  '-y+1/2, -z, x+1/2'
  275  'y+1/2, z, -x+1/2'
  276  'y+1/2, z, -x+1/2'
  277  '-x+1/2, -z, -y+1/2'
  278  '-x+1/2, -z, -y+1/2'
  279  'x+1/2, z, y+1/2'
  280  'x+1/2, z, y+1/2'
  281  'y+1/2, -z, -x+1/2'
  282  'y+1/2, -z, -x+1/2'
  283  '-y+1/2, z, x+1/2'
  284  '-y+1/2, z, x+1/2'
  285  'x+1/2, -z, y+1/2'
  286  'x+1/2, -z, y+1/2'
  287  '-x+1/2, z, -y+1/2'
  288  '-x+1/2, z, -y+1/2'
  289  'x, y+1/2, z+1/2'
  290  'x, y+1/2, z+1/2'
  291  '-x, -y+1/2, -z+1/2'
  292  '-x, -y+1/2, -z+1/2'
  293  '-y, x+1/2, z+1/2'
  294  '-y, x+1/2, z+1/2'
  295  'y, -x+1/2, -z+1/2'
  296  'y, -x+1/2, -z+1/2'
  297  '-x, -y+1/2, z+1/2'
  298  '-x, -y+1/2, z+1/2'
  299  'x, y+1/2, -z+1/2'
  300  'x, y+1/2, -z+1/2'
  301  'y, -x+1/2, z+1/2'
  302  'y, -x+1/2, z+1/2'
  303  '-y, x+1/2, -z+1/2'
  304  '-y, x+1/2, -z+1/2'
  305  'x, -y+1/2, -z+1/2'
  306  'x, -y+1/2, -z+1/2'
  307  '-x, y+1/2, z+1/2'
  308  '-x, y+1/2, z+1/2'
  309  '-y, -x+1/2, -z+1/2'
  310  '-y, -x+1/2, -z+1/2'
  311  'y, x+1/2, z+1/2'
  312  'y, x+1/2, z+1/2'
  313  '-x, y+1/2, -z+1/2'
  314  '-x, y+1/2, -z+1/2'
  315  'x, -y+1/2, z+1/2'
  316  'x, -y+1/2, z+1/2'
  317  'y, x+1/2, -z+1/2'
  318  'y, x+1/2, -z+1/2'
  319  '-y, -x+1/2, z+1/2'
  320  '-y, -x+1/2, z+1/2'
  321  'z, x+1/2, y+1/2'
  322  'z, x+1/2, y+1/2'
  323  '-z, -x+1/2, -y+1/2'
  324  '-z, -x+1/2, -y+1/2'
  325  'z, -y+1/2, x+1/2'
  326  'z, -y+1/2, x+1/2'
  327  '-z, y+1/2, -x+1/2'
  328  '-z, y+1/2, -x+1/2'
  329  'z, -x+1/2, -y+1/2'
  330  'z, -x+1/2, -y+1/2'
  331  '-z, x+1/2, y+1/2'
  332  '-z, x+1/2, y+1/2'
  333  'z, y+1/2, -x+1/2'
  334  'z, y+1/2, -x+1/2'
  335  '-z, -y+1/2, x+1/2'
  336  '-z, -y+1/2, x+1/2'
  337  '-z, x+1/2, -y+1/2'
  338  '-z, x+1/2, -y+1/2'
  339  'z, -x+1/2, y+1/2'
  340  'z, -x+1/2, y+1/2'
  341  '-z, -y+1/2, -x+1/2'
  342  '-z, -y+1/2, -x+1/2'
  343  'z, y+1/2, x+1/2'
  344  'z, y+1/2, x+1/2'
  345  '-z, -x+1/2, y+1/2'
  346  '-z, -x+1/2, y+1/2'
  347  'z, x+1/2, -y+1/2'
  348  'z, x+1/2, -y+1/2'
  349  '-z, y+1/2, x+1/2'
  350  '-z, y+1/2, x+1/2'
  351  'z, -y+1/2, -x+1/2'
  352  'z, -y+1/2, -x+1/2'
  353  'y, z+1/2, x+1/2'
  354  'y, z+1/2, x+1/2'
  355  '-y, -z+1/2, -x+1/2'
  356  '-y, -z+1/2, -x+1/2'
  357  'x, z+1/2, -y+1/2'
  358  'x, z+1/2, -y+1/2'
  359  '-x, -z+1/2, y+1/2'
  360  '-x, -z+1/2, y+1/2'
  361  '-y, z+1/2, -x+1/2'
  362  '-y, z+1/2, -x+1/2'
  363  'y, -z+1/2, x+1/2'
  364  'y, -z+1/2, x+1/2'
  365  '-x, z+1/2, y+1/2'
  366  '-x, z+1/2, y+1/2'
  367  'x, -z+1/2, -y+1/2'
  368  'x, -z+1/2, -y+1/2'
  369  '-y, -z+1/2, x+1/2'
  370  '-y, -z+1/2, x+1/2'
  371  'y, z+1/2, -x+1/2'
  372  'y, z+1/2, -x+1/2'
  373  '-x, -z+1/2, -y+1/2'
  374  '-x, -z+1/2, -y+1/2'
  375  'x, z+1/2, y+1/2'
  376  'x, z+1/2, y+1/2'
  377  'y, -z+1/2, -x+1/2'
  378  'y, -z+1/2, -x+1/2'
  379  '-y, z+1/2, x+1/2'
  380  '-y, z+1/2, x+1/2'
  381  'x, -z+1/2, y+1/2'
  382  'x, -z+1/2, y+1/2'
  383  '-x, z+1/2, -y+1/2'
  384  '-x, z+1/2, -y+1/2'
loop_
 _atom_type_symbol
 _atom_type_oxidation_number
  Sr2+  2.0
  S2-  -2.0
loop_
 _atom_site_type_symbol
 _atom_site_label
 _atom_site_symmetry_multiplicity
 _atom_site_fract_x
 _atom_site_fract_y
 _atom_site_fract_z
 _atom_site_occupancy
  Sr2+  Sr0  4  0.00000000  0.00000000  0.00000000  1
  S2-  S1  4  0.00000000  0.00000000  0.50000000  1
